version 2
1
9
.tran 1s 10s{return}{return}{return}.kicad adjustpaths{return}.save all{return}.probe alli
0
